LTspice 24.1.4 for Windows
Circuit: C:\Users\aharj\Desktop\TAMK\Älykkäät järjestelmät, jatko\weather-station\Draft1.net
Start Time: Thu Apr 10 13:21:56 2025
solver = Normal
Maximum thread count: 12
tnom = 27
temp = 27
method = trap
Direct Newton iteration for .op point succeeded.
Total elapsed time: 0.404 seconds.

Files loaded:
C:\Users\aharj\Desktop\TAMK\Älykkäät järjestelmät, jatko\weather-station\Draft1.net

